Data/networks/opendssNetworks/network_3/Feeder_2/Loads - Copy.txt
New Load.LOAD1 Phases=1 Bus1=59.3 kV=0.23 kW=1 PF=0.95
New Load.LOAD2 Phases=1 Bus1=68.3 kV=0.23 kW=1 PF=0.95
New Load.LOAD3 Phases=1 Bus1=80.1 kV=0.23 kW=1 PF=0.95
New Load.LOAD4 Phases=1 Bus1=94.1 kV=0.23 kW=1 PF=0.95
New Load.LOAD5 Phases=1 Bus1=108.2 kV=0.23 kW=1 PF=0.95
New Load.LOAD6 Phases=1 Bus1=115.2 kV=0.23 kW=1 PF=0.95
New Load.LOAD7 Phases=1 Bus1=120.2 kV=0.23 kW=1 PF=0.95
New Load.LOAD8 Phases=1 Bus1=121.2 kV=0.23 kW=1 PF=0.95
New Load.LOAD9 Phases=1 Bus1=126.3 kV=0.23 kW=1 PF=0.95
New Load.LOAD10 Phases=1 Bus1=143.3 kV=0.23 kW=1 PF=0.95
New Load.LOAD11 Phases=1 Bus1=154.1 kV=0.23 kW=1 PF=0.95
New Load.LOAD12 Phases=1 Bus1=157.3 kV=0.23 kW=1 PF=0.95
New Load.LOAD13 Phases=1 Bus1=164.1 kV=0.23 kW=1 PF=0.95
New Load.LOAD14 Phases=1 Bus1=172.1 kV=0.23 kW=1 PF=0.95
New Load.LOAD15 Phases=1 Bus1=176.1 kV=0.23 kW=1 PF=0.95
New Load.LOAD16 Phases=1 Bus1=181.3 kV=0.23 kW=1 PF=0.95
New Load.LOAD17 Phases=1 Bus1=189.3 kV=0.23 kW=1 PF=0.95
New Load.LOAD18 Phases=1 Bus1=195.3 kV=0.23 kW=1 PF=0.95
New Load.LOAD19 Phases=1 Bus1=216.3 kV=0.23 kW=1 PF=0.95
New Load.LOAD20 Phases=1 Bus1=226.1 kV=0.23 kW=1 PF=0.95
New Load.LOAD21 Phases=1 Bus1=245.1 kV=0.23 kW=1 PF=0.95
New Load.LOAD22 Phases=1 Bus1=247.2 kV=0.23 kW=1 PF=0.95
New Load.LOAD23 Phases=1 Bus1=282.3 kV=0.23 kW=1 PF=0.95
New Load.LOAD24 Phases=1 Bus1=286.2 kV=0.23 kW=1 PF=0.95
New Load.LOAD25 Phases=1 Bus1=314.2 kV=0.23 kW=1 PF=0.95
New Load.LOAD26 Phases=1 Bus1=323.3 kV=0.23 kW=1 PF=0.95
New Load.LOAD27 Phases=1 Bus1=344.2 kV=0.23 kW=1 PF=0.95
New Load.LOAD28 Phases=1 Bus1=374.1 kV=0.23 kW=1 PF=0.95
New Load.LOAD29 Phases=1 Bus1=392.1 kV=0.23 kW=1 PF=0.95
New Load.LOAD30 Phases=1 Bus1=420.1 kV=0.23 kW=1 PF=0.95
New Load.LOAD31 Phases=1 Bus1=451.3 kV=0.23 kW=1 PF=0.95
New Load.LOAD32 Phases=1 Bus1=458.1 kV=0.23 kW=1 PF=0.95
New Load.LOAD33 Phases=1 Bus1=498.1 kV=0.23 kW=1 PF=0.95
New Load.LOAD34 Phases=1 Bus1=512.3 kV=0.23 kW=1 PF=0.95
New Load.LOAD35 Phases=1 Bus1=525.2 kV=0.23 kW=1 PF=0.95
New Load.LOAD36 Phases=1 Bus1=528.1 kV=0.23 kW=1 PF=0.95
New Load.LOAD37 Phases=1 Bus1=538.1 kV=0.23 kW=1 PF=0.95
New Load.LOAD38 Phases=1 Bus1=557.2 kV=0.23 kW=1 PF=0.95
New Load.LOAD39 Phases=1 Bus1=564.2 kV=0.23 kW=1 PF=0.95
New Load.LOAD40 Phases=1 Bus1=580.2 kV=0.23 kW=1 PF=0.95
New Load.LOAD41 Phases=1 Bus1=588.3 kV=0.23 kW=1 PF=0.95
New Load.LOAD42 Phases=1 Bus1=597.1 kV=0.23 kW=1 PF=0.95
New Load.LOAD43 Phases=1 Bus1=600.1 kV=0.23 kW=1 PF=0.95
New Load.LOAD44 Phases=1 Bus1=604.3 kV=0.23 kW=1 PF=0.95
New Load.LOAD45 Phases=1 Bus1=610.1 kV=0.23 kW=1 PF=0.95
New Load.LOAD46 Phases=1 Bus1=635.2 kV=0.23 kW=1 PF=0.95
New Load.LOAD47 Phases=1 Bus1=650.1 kV=0.23 kW=1 PF=0.95
New Load.LOAD48 Phases=1 Bus1=652.1 kV=0.23 kW=1 PF=0.95
New Load.LOAD49 Phases=1 Bus1=706.1 kV=0.23 kW=1 PF=0.95
New Load.LOAD50 Phases=1 Bus1=731.1 kV=0.23 kW=1 PF=0.95
New Load.LOAD51 Phases=1 Bus1=753.1 kV=0.23 kW=1 PF=0.95
New Load.LOAD52 Phases=1 Bus1=779.2 kV=0.23 kW=1 PF=0.95
New Load.LOAD53 Phases=1 Bus1=785.3 kV=0.23 kW=1 PF=0.95
New Load.LOAD54 Phases=1 Bus1=791.1 kV=0.23 kW=1 PF=0.95
New Load.LOAD55 Phases=1 Bus1=797.1 kV=0.23 kW=1 PF=0.95
New Load.LOAD56 Phases=1 Bus1=813.1 kV=0.23 kW=1 PF=0.95
New Load.LOAD57 Phases=1 Bus1=838.1 kV=0.23 kW=1 PF=0.95
New Load.LOAD58 Phases=1 Bus1=847.1 kV=0.23 kW=1 PF=0.95
New Load.LOAD59 Phases=1 Bus1=854.3 kV=0.23 kW=1 PF=0.95
New Load.LOAD60 Phases=1 Bus1=866.2 kV=0.23 kW=1 PF=0.95
New Load.LOAD61 Phases=1 Bus1=878.2 kV=0.23 kW=1 PF=0.95
New Load.LOAD62 Phases=1 Bus1=893.1 kV=0.23 kW=1 PF=0.95
New Load.LOAD63 Phases=1 Bus1=913.3 kV=0.23 kW=1 PF=0.95
New Load.LOAD64 Phases=1 Bus1=914.3 kV=0.23 kW=1 PF=0.95
New Load.LOAD65 Phases=1 Bus1=922.2 kV=0.23 kW=1 PF=0.95
New Load.LOAD66 Phases=1 Bus1=944.3 kV=0.23 kW=1 PF=0.95
New Load.LOAD67 Phases=1 Bus1=991.3 kV=0.23 kW=1 PF=0.95
New Load.LOAD68 Phases=1 Bus1=1015.2 kV=0.23 kW=1 PF=0.95
